22
Coordinates from ORCA-job opt+numfreq E -27.426989822210
  C      -1.891620      2.522860     -0.174380
  C      -3.156930      1.742570     -0.319270
  C      -0.858070      1.472430     -0.417700
  H      -1.828800      3.324160     -0.914110
  H      -3.606000     -0.362520     -0.757980
  C      -1.456080      0.262350     -0.670570
  H      -1.797940      2.951950      0.825640
  H      -4.150430      2.164000     -0.202310
  C      -2.879250      0.430330     -0.609150
  H      -0.948200     -0.675780     -0.869530
  H       0.212190      1.649090     -0.383950
  C      -0.523300     -0.376140      2.697820
  C      -0.373510     -1.844880      2.470560
  H       0.203930     -2.053630      1.566960
  H       0.105740     -2.333930      3.321630
  H      -2.248900      0.977630      2.814700
  H       0.307590      0.307750      2.836310
  C      -1.849560     -0.023410      2.687080
  C      -2.637870     -1.199230      2.452830
  C      -1.796250     -2.275510      2.322550
  H      -3.720620     -1.217760      2.382330
  H      -2.107850     -3.297570      2.133220
22
Coordinates from ORCA-job opt+numfreq E -27.432020917050
  C      -1.894536      2.501528     -0.175151
  C      -3.158917      1.726279     -0.315979
  C      -0.856589      1.461890     -0.417691
  H      -1.834952      3.305983     -0.909464
  H      -3.591257     -0.346588     -0.754806
  C      -1.447904      0.276436     -0.667029
  H      -1.799728      2.935437      0.820558
  H      -4.142593      2.145579     -0.199135
  C      -2.875348      0.441061     -0.604150
  H      -0.945660     -0.652137     -0.868517
  H       0.202959      1.642972     -0.385375
  C      -0.529775     -0.367819      2.696878
  C      -0.391020     -1.832546      2.467340
  H       0.189003     -2.043142      1.568480
  H       0.090210     -2.326490      3.312503
  H      -2.230407      0.963714      2.818580
  H       0.297274      0.305184      2.836277
  C      -1.833522     -0.026378      2.687454
  C      -2.626181     -1.203363      2.451166
  C      -1.808512     -2.265799      2.317037
  H      -3.698989     -1.217673      2.385199
  H      -2.115288     -3.279371      2.128505
22
Coordinates from ORCA-job opt+numfreq E -27.432571965730
  C      -1.895759      2.494804     -0.175797
  C      -3.162721      1.720039     -0.316338
  C      -0.853597      1.456829     -0.418443
  H      -1.836702      3.304590     -0.905656
  H      -3.587508     -0.347315     -0.755364
  C      -1.443124      0.280376     -0.665567
  H      -1.800085      2.934781      0.818246
  H      -4.142269      2.145310     -0.200141
  C      -2.876383      0.443747     -0.602416
  H      -0.944566     -0.649455     -0.868995
  H       0.203125      1.645895     -0.385604
  C      -0.531860     -0.362358      2.697728
  C      -0.396954     -1.828877      2.465943
  H       0.186976     -2.041822      1.569018
  H       0.089611     -2.327349      3.306600
  H      -2.228456      0.962278      2.820829
  H       0.299147      0.303413      2.837586
  C      -1.827654     -0.025586      2.688079
  C      -2.624538     -1.206140      2.450729
  C      -1.815659     -2.264547      2.315911
  H      -3.697350     -1.214887      2.387655
  H      -2.115404     -3.278964      2.128678
22
Coordinates from ORCA-job opt+numfreq E -27.432725257800
  C      -1.895405      2.492509     -0.175204
  C      -3.164094      1.717914     -0.316361
  C      -0.852023      1.453597     -0.418044
  H      -1.835629      3.305844     -0.901775
  H      -3.585566     -0.352229     -0.754897
  C      -1.441971      0.278545     -0.663521
  H      -1.798917      2.936351      0.817601
  H      -4.140561      2.150722     -0.200997
  C      -2.877761      0.442239     -0.600476
  H      -0.947668     -0.654055     -0.867799
  H       0.203491      1.649960     -0.384467
  C      -0.533377     -0.359108      2.697617
  C      -0.398380     -1.826910      2.464270
  H       0.187980     -2.040683      1.568500
  H       0.092740     -2.327851      3.301440
  H      -2.234017      0.962680      2.820067
  H       0.302161      0.301117      2.837811
  C      -1.828132     -0.023684      2.686973
  C      -2.626231     -1.206320      2.449281
  C      -1.818196     -2.264204      2.315237
  H      -3.699719     -1.210491      2.387968
  H      -2.110455     -3.281182      2.129454
22
Coordinates from ORCA-job opt+numfreq E -27.432827213210
  C      -1.893740      2.489072     -0.173570
  C      -3.163970      1.715699     -0.314990
  C      -0.850677      1.448595     -0.416770
  H      -1.832598      3.306133     -0.896344
  H      -3.582546     -0.359808     -0.752528
  C      -1.442120      0.273516     -0.659587
  H      -1.795612      2.936616      0.817779
  H      -4.135838      2.159858     -0.200582
  C      -2.879272      0.438758     -0.596453
  H      -0.955104     -0.663130     -0.864922
  H       0.203247      1.654958     -0.382884
  C      -0.536284     -0.354800      2.696805
  C      -0.399592     -1.822997      2.461166
  H       0.189181     -2.036128      1.566401
  H       0.097198     -2.326531      3.293854
  H      -2.245516      0.962679      2.817896
  H       0.305374      0.297876      2.838200
  C      -1.831554     -0.020698      2.684312
  C      -2.629153     -1.205314      2.445987
  C      -1.819581     -2.262578      2.313095
  H      -3.703072     -1.203622      2.386817
  H      -2.100501     -3.283394      2.128998
22
Coordinates from ORCA-job opt+numfreq E -27.432841502830
  C      -1.892260      2.486964     -0.172295
  C      -3.162788      1.714831     -0.312800
  C      -0.850316      1.445941     -0.415678
  H      -1.830672      3.304160     -0.894830
  H      -3.581742     -0.362115     -0.749662
  C      -1.442823      0.270595     -0.657140
  H      -1.793086      2.934366      0.818993
  H      -4.133330      2.162109     -0.198316
  C      -2.879368      0.437087     -0.593576
  H      -0.958584     -0.667285     -0.862793
  H       0.203287      1.654400     -0.382683
  C      -0.537898     -0.352672      2.695940
  C      -0.399915     -1.820202      2.459268
  H       0.188929     -2.031572      1.564147
  H       0.097878     -2.324106      3.291071
  H      -2.250629      0.962656      2.816639
  H       0.304842      0.298423      2.838611
  C      -1.833823     -0.019334      2.682578
  C      -2.629971     -1.204275      2.443562
  C      -1.819015     -2.260921      2.310639
  H      -3.703780     -1.201589      2.384630
  H      -2.096667     -3.282700      2.126378
22
Coordinates from ORCA-job opt+numfreq E -27.432851585700
  C      -1.889910      2.484190     -0.170695
  C      -3.161125      1.713859     -0.309323
  C      -0.849591      1.442284     -0.414592
  H      -1.827996      3.300839     -0.893682
  H      -3.581758     -0.363855     -0.745129
  C      -1.443771      0.266988     -0.654200
  H      -1.789082      2.930541      0.820855
  H      -4.130608      2.163376     -0.194314
  C      -2.879460      0.435360     -0.589597
  H      -0.962358     -0.672075     -0.860313
  H       0.203957      1.651382     -0.383634
  C      -0.540068     -0.349577      2.695214
  C      -0.400092     -1.816199      2.456807
  H       0.188462     -2.024419      1.560794
  H       0.098171     -2.320387      3.288009
  H      -2.256452      0.962700      2.815967
  H       0.302637      0.301064      2.840196
  C      -1.836740     -0.017749      2.680821
  C      -2.630660     -1.203207      2.440272
  C      -1.817937     -2.258719      2.306712
  H      -3.704330     -1.200588      2.381083
  H      -2.093018     -3.281045      2.121429
22
Coordinates from ORCA-job opt+numfreq E -27.432862659460
  C      -1.886149      2.480494     -0.168778
  C      -3.158897      1.712754     -0.304340
  C      -0.848219      1.436839     -0.413923
  H      -1.823960      3.296280     -0.892520
  H      -3.583069     -0.365209     -0.738357
  C      -1.445121      0.262141     -0.650802
  H      -1.782600      2.925177      0.823199
  H      -4.127223      2.164427     -0.188213
  C      -2.879940      0.433432     -0.584109
  H      -0.967152     -0.678389     -0.857732
  H       0.205524      1.645322     -0.386575
  C      -0.543361     -0.344839      2.695143
  C      -0.399993     -1.810369      2.453531
  H       0.188252     -2.013557      1.556184
  H       0.098788     -2.315167      3.283850
  H      -2.264311      0.962679      2.816654
  H       0.298220      0.306339      2.844004
  C      -1.840931     -0.015800      2.679406
  C      -2.631557     -1.202380      2.435843
  C      -1.816300     -2.255897      2.300898
  H      -3.705109     -1.200959      2.375842
  H      -2.088620     -3.278557      2.113475
22
Coordinates from ORCA-job opt+numfreq E -27.432883194840
  C      -1.877760      2.473366     -0.165619
  C      -3.154370      1.711112     -0.294525
  C      -0.845134      1.425313     -0.414276
  H      -1.815170      3.287751     -0.890549
  H      -3.587676     -0.366410     -0.724404
  C      -1.448165      0.252527     -0.645520
  H      -1.768012      2.914847      0.827071
  H      -4.120446      2.166663     -0.175502
  C      -2.881649      0.430252     -0.573474
  H      -0.976760     -0.690820     -0.854430
  H       0.209304      1.630861     -0.395103
  C      -0.550694     -0.334878      2.696819
  C      -0.399242     -1.798258      2.447346
  H       0.188885     -1.990518      1.547525
  H       0.100930     -2.304825      3.275386
  H      -2.280528      0.962112      2.820953
  H       0.287383      0.318698      2.854328
  C      -1.849975     -0.012465      2.678564
  C      -2.633493     -1.201905      2.427452
  C      -1.812644     -2.250634      2.289078
  H      -3.706871     -1.204384      2.365240
  H      -2.079643     -3.273643      2.096320
22
Coordinates from ORCA-job opt+numfreq E -27.432916260130
  C      -1.863075      2.462277     -0.161746
  C      -3.146735      1.709520     -0.279414
  C      -0.840066      1.406029     -0.417613
  H      -1.799926      3.275280     -0.887717
  H      -3.597796     -0.366038     -0.702012
  C      -1.453865      0.237270     -0.639888
  H      -1.742338      2.899080      0.831719
  H      -4.108952      2.171414     -0.154632
  C      -2.885492      0.426223     -0.557431
  H      -0.992703     -0.710420     -0.852480
  H       0.215768      1.604745     -0.412396
  C      -0.563748     -0.318657      2.702364
  C      -0.397322     -1.778195      2.438226
  H       0.191546     -1.951985      1.535084
  H       0.105975     -2.288404      3.261657
  H      -2.307657      0.959942      2.832368
  H       0.267129      0.340322      2.874553
  C      -1.865745     -0.008262      2.680510
  C      -2.636850     -1.202948      2.415097
  C      -1.805993     -2.242702      2.270325
  H      -3.709936     -1.213744      2.348614
  H      -2.063948     -3.265988      2.067492
22
Coordinates from ORCA-job opt+numfreq E -27.432963167340
  C      -1.846477      2.451101     -0.159384
  C      -3.138197      1.709160     -0.264816
  C      -0.834935      1.385326     -0.424869
  H      -1.782850      3.263987     -0.885136
  H      -3.611332     -0.362754     -0.679431
  C      -1.460887      0.221832     -0.638345
  H      -1.713106      2.883600      0.834371
  H      -4.095976      2.177946     -0.132391
  C      -2.890661      0.423405     -0.542642
  H      -1.009934     -0.729946     -0.855527
  H       0.222575      1.574577     -0.434734
  C      -0.578880     -0.301950      2.711902
  C      -0.394643     -1.756648      2.430021
  H       0.196272     -1.910399      1.524511
  H       0.113024     -2.271608      3.247486
  H      -2.337004      0.955733      2.850393
  H       0.242753      0.364282      2.899916
  C      -1.883700     -0.005573      2.687165
  C      -2.640621     -1.206164      2.404155
  C      -1.798071     -2.234949      2.251422
  H      -3.713301     -1.228050      2.332507
  H      -2.045778     -3.258149      2.036106
22
Coordinates from ORCA-job opt+numfreq E -27.433029760570
  C      -1.829901      2.440623     -0.158659
  C      -3.129526      1.709500     -0.252487
  C      -0.830568      1.365322     -0.435646
  H      -1.765986      3.255477     -0.882219
  H      -3.626970     -0.357070     -0.659274
  C      -1.468438      0.207830     -0.642300
  H      -1.683614      2.870557      0.834429
  H      -4.082686      2.184954     -0.110646
  C      -2.896459      0.421649     -0.531282
  H      -1.025755     -0.746853     -0.864460
  H       0.228750      1.543335     -0.459032
  C      -0.594634     -0.286633      2.724597
  C      -0.391840     -1.735704      2.423590
  H       0.203340     -1.871104      1.517946
  H       0.121098     -2.256311      3.234224
  H      -2.364537      0.950203      2.873840
  H       0.216828      0.387990      2.926837
  C      -1.901999     -0.004671      2.698664
  C      -2.644699     -1.210745      2.396173
  C      -1.790044     -2.227604      2.234479
  H      -3.716833     -1.245761      2.318888
  H      -2.027258     -3.250225      2.005016
22
Coordinates from ORCA-job opt+numfreq E -27.433098542150
  C      -1.813267      2.428689     -0.157459
  C      -3.120151      1.708693     -0.239953
  C      -0.826779      1.344589     -0.446910
  H      -1.749007      3.247022     -0.877425
  H      -3.642555     -0.351868     -0.639471
  C      -1.476384      0.193194     -0.648516
  H      -1.653769      2.857716      0.834141
  H      -4.067886      2.191774     -0.087037
  C      -2.901979      0.418893     -0.520843
  H      -1.041219     -0.763934     -0.875568
  H       0.234224      1.511393     -0.481305
  C      -0.611122     -0.271274      2.737402
  C      -0.389911     -1.713568      2.416815
  H       0.211704     -1.832226      1.512983
  H       0.128729     -2.240237      3.220294
  H      -2.392059      0.944916      2.898377
  H       0.190633      0.411498      2.951449
  C      -1.921194     -0.003788      2.711594
  C      -2.649381     -1.214359      2.388730
  C      -1.782246     -2.218684      2.217242
  H      -3.720672     -1.263130      2.305816
  H      -2.007439     -3.240549      1.972323
22
Coordinates from ORCA-job opt+numfreq E -27.433164298010
  C      -1.796151      2.414408     -0.154747
  C      -3.109840      1.706351     -0.225183
  C      -0.822924      1.322342     -0.456766
  H      -1.731434      3.236002     -0.871336
  H      -3.656461     -0.348416     -0.618985
  C      -1.484634      0.176886     -0.653892
  H      -1.622861      2.842022      0.835410
  H      -4.051147      2.198232     -0.060275
  C      -2.906709      0.414716     -0.509314
  H      -1.058202     -0.783131     -0.885871
  H       0.239396      1.478917     -0.500869
  C      -0.628244     -0.254768      2.748677
  C      -0.388982     -1.689199      2.408501
  H       0.219182     -1.790402      1.506672
  H       0.134973     -2.221604      3.205173
  H      -2.421797      0.939815      2.921434
  H       0.164550      0.435187      2.973351
  C      -1.941475     -0.002055      2.723376
  C      -2.654272     -1.216285      2.380201
  C      -1.774385     -2.207640      2.197898
  H      -3.724464     -1.278053      2.292360
  H      -1.985850     -3.228565      1.936867
22
Coordinates from ORCA-job opt+numfreq E -27.433238795590
  C      -1.778907      2.397786     -0.150779
  C      -3.098666      1.702180     -0.208419
  C      -0.819134      1.299137     -0.466180
  H      -1.714174      3.222517     -0.864194
  H      -3.668279     -0.346711     -0.600079
  C      -1.493112      0.159581     -0.660465
  H      -1.590884      2.823500      0.837717
  H      -4.032481      2.203655     -0.029831
  C      -2.910366      0.409212     -0.498345
  H      -1.076503     -0.803213     -0.897788
  H       0.244243      1.446684     -0.517670
  C      -0.645667     -0.237502      2.759287
  C      -0.389300     -1.662876      2.399167
  H       0.226176     -1.746082      1.500334
  H       0.138679     -2.201052      3.189808
  H      -2.452856      0.934065      2.944595
  H       0.139374      0.458549      2.992441
  C      -1.962454      0.000018      2.735557
  C      -2.659419     -1.216380      2.371947
  C      -1.766739     -2.194215      2.176703
  H      -3.728402     -1.290394      2.280599
  H      -1.962857     -3.213697      1.898276
22
Coordinates from ORCA-job opt+numfreq E -27.433311126760
  C      -1.761385      2.380531     -0.145698
  C      -3.087332      1.697545     -0.190353
  C      -0.814763      1.275479     -0.474598
  H      -1.696823      3.207024     -0.857186
  H      -3.678204     -0.345735     -0.582856
  C      -1.501226      0.142122     -0.665887
  H      -1.558529      2.801315      0.842198
  H      -4.013526      2.208121      0.001418
  C      -2.913356      0.403824     -0.487291
  H      -1.096207     -0.824166     -0.909266
  H       0.249262      1.414610     -0.534106
  C      -0.662937     -0.219553      2.768969
  C      -0.389591     -1.635841      2.388981
  H       0.230558     -1.698738      1.491478
  H       0.141584     -2.179052      3.174197
  H      -2.485452      0.927748      2.966830
  H       0.114344      0.481962      3.011265
  C      -1.983102      0.002468      2.746595
  C      -2.663955     -1.216054      2.363686
  C      -1.759054     -2.180211      2.154618
  H      -3.731791     -1.300901      2.270194
  H      -1.940244     -3.197740      1.859493
22
Coordinates from ORCA-job opt+numfreq E -27.433385259270
  C      -1.743752      2.362642     -0.139449
  C      -3.075791      1.691876     -0.171667
  C      -0.810043      1.251771     -0.483285
  H      -1.680175      3.190159     -0.849668
  H      -3.686282     -0.345349     -0.570558
  C      -1.508881      0.125262     -0.673202
  H      -1.525745      2.775736      0.848310
  H      -3.994405      2.210495      0.033681
  C      -2.915529      0.398486     -0.478595
  H      -1.116918     -0.844154     -0.924087
  H       0.254454      1.383110     -0.550088
  C      -0.679808     -0.201224      2.778814
  C      -0.389950     -1.608151      2.378460
  H       0.233083     -1.649178      1.482021
  H       0.142945     -2.156211      3.159024
  H      -2.518076      0.919688      2.990471
  H       0.090194      0.505142      3.029616
  C      -2.002965      0.004709      2.758677
  C      -2.668256     -1.215138      2.357302
  C      -1.751801     -2.165071      2.132461
  H      -3.735204     -1.309905      2.263719
  H      -1.918824     -3.179935      1.820721
22
Coordinates from ORCA-job opt+numfreq E -27.433451994400
  C      -1.725699      2.345448     -0.132555
  C      -3.064302      1.686737     -0.154201
  C      -0.805134      1.227773     -0.491447
  H      -1.662327      3.174511     -0.840725
  H      -3.695623     -0.343543     -0.558395
  C      -1.516107      0.108713     -0.679743
  H      -1.493938      2.749689      0.855702
  H      -3.976033      2.212312      0.063200
  C      -2.918249      0.393920     -0.469997
  H      -1.136634     -0.863938     -0.938474
  H       0.259766      1.349951     -0.567060
  C      -0.696909     -0.182799      2.788109
  C      -0.389496     -1.580641      2.367553
  H       0.234050     -1.599948      1.470746
  H       0.147101     -2.132996      3.142319
  H      -2.550153      0.912198      3.014011
  H       0.064370      0.529350      3.048746
  C      -2.022419      0.007123      2.770175
  C      -2.672245     -1.215273      2.351041
  C      -1.744535     -2.150562      2.111883
  H      -3.738154     -1.320687      2.256699
  H      -1.899061     -3.162579      1.785093
22
Coordinates from ORCA-job opt+numfreq E -27.433519499990
  C      -1.708082      2.326904     -0.121652
  C      -3.052745      1.678243     -0.137157
  C      -0.799957      1.204209     -0.499291
  H      -1.646662      3.157663     -0.827517
  H      -3.702097     -0.343235     -0.560348
  C      -1.521862      0.093827     -0.692384
  H      -1.463013      2.718783      0.867284
  H      -3.958868      2.207811      0.092804
  C      -2.919517      0.388378     -0.468969
  H      -1.156197     -0.879923     -0.963084
  H       0.265525      1.318856     -0.580169
  C      -0.712175     -0.163574      2.796672
  C      -0.389211     -1.552322      2.355770
  H       0.233020     -1.550313      1.459570
  H       0.148383     -2.109061      3.126257
  H      -2.579041      0.902782      3.040823
  H       0.042681      0.553034      3.063850
  C      -2.039111      0.009825      2.784347
  C      -2.676908     -1.213195      2.350189
  C      -1.739317     -2.133419      2.093453
  H      -3.742336     -1.328412      2.259526
  H      -1.884240     -3.142102      1.752704
22
Coordinates from ORCA-job opt+numfreq E -27.433584033520
  C      -1.689364      2.308282     -0.112521
  C      -3.040491      1.672170     -0.120894
  C      -0.795153      1.178800     -0.505830
  H      -1.626409      3.143031     -0.813544
  H      -3.713466     -0.340097     -0.549086
  C      -1.528780      0.076463     -0.699315
  H      -1.432705      2.691459      0.877168
  H      -3.940054      2.208066      0.120180
  C      -2.922713      0.383309     -0.461221
  H      -1.173903     -0.899726     -0.978772
  H       0.270695      1.282655     -0.595377
  C      -0.730053     -0.144331      2.804105
  C      -0.389038     -1.523222      2.343276
  H       0.232266     -1.501671      1.446038
  H       0.156116     -2.083715      3.105750
  H      -2.610019      0.896861      3.064837
  H       0.014798      0.579135      3.080826
  C      -2.058948      0.013161      2.795622
  C      -2.681219     -1.213333      2.344350
  C      -1.732389     -2.117833      2.074698
  H      -3.745035     -1.341249      2.252121
  H      -1.865867     -3.123456      1.720269
22
Coordinates from ORCA-job opt+numfreq E -27.433656049960
  C      -1.671265      2.287196     -0.098446
  C      -3.028138      1.662722     -0.107016
  C      -0.790378      1.153423     -0.510512
  H      -1.606215      3.128862     -0.791277
  H      -3.724505     -0.337065     -0.552683
  C      -1.534463      0.060111     -0.712643
  H      -1.405230      2.660302      0.892537
  H      -3.922567      2.202685      0.144731
  C      -2.925420      0.376780     -0.461995
  H      -1.189300     -0.915959     -1.006122
  H       0.276133      1.247422     -0.605246
  C      -0.746251     -0.124065      2.809253
  C      -0.389675     -1.493019      2.329519
  H       0.229732     -1.455259      1.431485
  H       0.164545     -2.056878      3.083276
  H      -2.636836      0.891826      3.092815
  H      -0.009502      0.605522      3.092258
  C      -2.076633      0.017701      2.809305
  C      -2.686800     -1.211362      2.344401
  C      -1.727610     -2.100160      2.060367
  H      -3.748948     -1.352946      2.254041
  H      -1.852404     -3.103080      1.694635
22
Coordinates from ORCA-job opt+numfreq E -27.433726309810
  C      -1.653788      2.263103     -0.080877
  C      -3.015667      1.650259     -0.092377
  C      -0.785278      1.127272     -0.512204
  H      -1.585875      3.112659     -0.764129
  H      -3.733386     -0.335961     -0.563161
  C      -1.539316      0.043222     -0.726919
  H      -1.379688      2.624554      0.912054
  H      -3.905117      2.193758      0.169846
  C      -2.926890      0.368412     -0.465593
  H      -1.204024     -0.931142     -1.036909
  H       0.281818      1.212950     -0.610308
  C      -0.761496     -0.102393      2.811463
  C      -0.391857     -1.461245      2.313967
  H       0.224089     -1.408118      1.414465
  H       0.172242     -2.027813      3.058664
  H      -2.661850      0.887746      3.120347
  H      -0.031292      0.632137      3.099102
  C      -2.093323      0.023954      2.822044
  C      -2.692621     -1.206669      2.346135
  C      -1.724255     -2.080255      2.046358
  H      -3.753223     -1.361120      2.260236
  H      -1.840932     -3.080550      1.670476
22
Coordinates from ORCA-job opt+numfreq E -27.433798603030
  C      -1.638094      2.236989     -0.060375
  C      -3.004166      1.635392     -0.078519
  C      -0.779914      1.101667     -0.510232
  H      -1.565642      3.095695     -0.732055
  H      -3.740041     -0.336348     -0.581801
  C      -1.543003      0.026963     -0.741475
  H      -1.358590      2.585086      0.935673
  H      -3.889225      2.181701      0.192852
  C      -2.927243      0.358761     -0.472765
  H      -1.216696     -0.943691     -1.070662
  H       0.287599      1.180937     -0.610499
  C      -0.774689     -0.080226      2.810255
  C      -0.395478     -1.429820      2.297619
  H       0.214378     -1.363215      1.395009
  H       0.180500     -1.997708      3.032451
  H      -2.682861      0.885400      3.146388
  H      -0.049359      0.657802      3.101409
  C      -2.107833      0.031935      2.832905
  C      -2.698372     -1.199492      2.350044
  C      -1.722760     -2.059752      2.034471
  H      -3.757658     -1.365363      2.271088
  H      -1.832582     -3.057954      1.650898
22
Coordinates from ORCA-job opt+numfreq E -27.433858629530
  C      -1.622928      2.210649     -0.041120
  C      -2.993327      1.620888     -0.064736
  C      -0.774309      1.076327     -0.508719
  H      -1.544630      3.078191     -0.700824
  H      -3.745525     -0.336466     -0.600487
  C      -1.546741      0.011179     -0.755502
  H      -1.338707      2.542815      0.959080
  H      -3.873199      2.170544      0.216102
  C      -2.927099      0.349955     -0.479878
  H      -1.229580     -0.955640     -1.103692
  H       0.293239      1.149690     -0.612224
  C      -0.787753     -0.058410      2.809829
  C      -0.399538     -1.398906      2.282297
  H       0.201670     -1.317189      1.375012
  H       0.189274     -1.967078      3.006632
  H      -2.703654      0.882636      3.172261
  H      -0.067566      0.682669      3.105511
  C      -2.122211      0.039761      2.843538
  C      -2.703144     -1.192513      2.354042
  C      -1.721324     -2.040049      2.022449
  H      -3.761310     -1.368513      2.282316
  H      -1.823367     -3.035782      1.630793
22
Coordinates from ORCA-job opt+numfreq E -27.433898765860
  C      -1.611106      2.188308     -0.024889
  C      -2.985383      1.608518     -0.056900
  C      -0.769669      1.056280     -0.509252
  H      -1.525997      3.065154     -0.671282
  H      -3.750150     -0.334617     -0.626050
  C      -1.549650      0.000312     -0.772828
  H      -1.325013      2.503049      0.980420
  H      -3.861146      2.160088      0.232245
  C      -2.927049      0.343919     -0.492625
  H      -1.239234     -0.961817     -1.140025
  H       0.297884      1.125328     -0.615008
  C      -0.797507     -0.040815      2.811286
  C      -0.402987     -1.374095      2.271565
  H       0.187911     -1.279808      1.358789
  H       0.198730     -1.941414      2.985694
  H      -2.718116      0.880016      3.198431
  H      -0.081002      0.702390      3.110300
  C      -2.132665      0.045800      2.855718
  C      -2.706887     -1.187167      2.362473
  C      -1.721082     -2.024790      2.016942
  H      -3.764256     -1.371366      2.298419
  H      -1.817355     -3.018513      1.619258
22
Coordinates from ORCA-job opt+numfreq E -27.433923901560
  C      -1.599486      2.170031     -0.014709
  C      -2.977889      1.599972     -0.051619
  C      -0.765953      1.039015     -0.515790
  H      -1.508469      3.054859     -0.649078
  H      -3.755755     -0.330048     -0.645676
  C      -1.553376     -0.008289     -0.792024
  H      -1.310488      2.467384      0.995154
  H      -3.848854      2.153630      0.247319
  C      -2.927765      0.341164     -0.504531
  H      -1.249448     -0.967087     -1.174137
  H       0.301588      1.102953     -0.624057
  C      -0.807735     -0.026749      2.818425
  C      -0.405272     -1.352337      2.264892
  H       0.176590     -1.244220      1.347671
  H       0.207035     -1.919558      2.969759
  H      -2.733343      0.874925      3.226341
  H      -0.095800      0.719392      3.120816
  C      -2.143441      0.048583      2.871434
  C      -2.709505     -1.185472      2.371191
  C      -1.719450     -2.012424      2.012572
  H      -3.765873     -1.377761      2.312239
  H      -1.809041     -3.003204      1.606490
22
Coordinates from ORCA-job opt+numfreq E -27.433941854780
  C      -1.598880      2.163503     -0.010568
  C      -2.978363      1.596071     -0.059982
  C      -0.765171      1.037384     -0.521952
  H      -1.502609      3.056336     -0.632676
  H      -3.757337     -0.324976     -0.679034
  C      -1.553873     -0.004571     -0.813276
  H      -1.314016      2.446828      1.004282
  H      -3.849063      2.147848      0.242935
  C      -2.928160      0.342526     -0.526930
  H      -1.249325     -0.957980     -1.207793
  H       0.302680      1.102332     -0.627808
  C      -0.806863     -0.024304      2.824676
  C      -0.406380     -1.348879      2.268102
  H       0.167262     -1.238492      1.346437
  H       0.213466     -1.914829      2.967184
  H      -2.729500      0.873211      3.245532
  H      -0.093183      0.721192      3.125102
  C      -2.142064      0.048320      2.884727
  C      -2.710378     -1.184997      2.387652
  C      -1.721609     -2.011103      2.023969
  H      -3.766797     -1.378995      2.334476
  H      -1.811569     -3.001665      1.617626
22
Coordinates from ORCA-job opt+numfreq E -27.433957703910
  C      -1.589297      2.151851     -0.008188
  C      -2.972383      1.592764     -0.059955
  C      -0.763089      1.025923     -0.535087
  H      -1.488321      3.051477     -0.619294
  H      -3.763638     -0.317914     -0.692045
  C      -1.558193     -0.008712     -0.834300
  H      -1.301871      2.418461      1.010723
  H      -3.838264      2.146200      0.253437
  C      -2.929920      0.343719     -0.538782
  H      -1.258582     -0.960242     -1.237034
  H       0.304843      1.085777     -0.642261
  C      -0.815708     -0.016317      2.837928
  C      -0.407094     -1.333627      2.267415
  H       0.159393     -1.210375      1.342402
  H       0.220126     -1.900592      2.958810
  H      -2.742603      0.866346      3.271881
  H      -0.106562      0.732718      3.140288
  C      -2.151239      0.046921      2.903352
  C      -2.711582     -1.187395      2.397136
  C      -1.718714     -2.003542      2.023608
  H      -3.766858     -1.388095      2.345132
  H      -1.802169     -2.990587      1.607513
22
Coordinates from ORCA-job opt+numfreq E -27.433963305770
  C      -1.586974      2.147106     -0.006455
  C      -2.970904      1.590715     -0.063934
  C      -0.762719      1.023527     -0.541562
  H      -1.483656      3.051703     -0.609728
  H      -3.765662     -0.314421     -0.708191
  C      -1.559441     -0.007537     -0.848833
  H      -1.300571      2.404429      1.015082
  H      -3.835973      2.143185      0.253587
  C      -2.930730      0.344747     -0.551034
  H      -1.260687     -0.957025     -1.257202
  H       0.305466      1.082387     -0.646991
  C      -0.817013     -0.014298      2.844355
  C      -0.407433     -1.329278      2.268979
  H       0.155028     -1.202773      1.341980
  H       0.223482     -1.896898      2.956484
  H      -2.744047      0.864222      3.285365
  H      -0.108226      0.735688      3.145400
  C      -2.152436      0.046109      2.913979
  C      -2.712209     -1.187899      2.406395
  C      -1.718547     -2.001122      2.028665
  H      -3.767146     -1.390578      2.356326
  H      -1.801332     -2.987231      1.610013
22
Coordinates from ORCA-job opt+numfreq E -27.433965969950
  C      -1.585564      2.143657     -0.005470
  C      -2.969848      1.589001     -0.066245
  C      -0.762418      1.022128     -0.546187
  H      -1.481205      3.051846     -0.603125
  H      -3.766453     -0.312801     -0.718923
  C      -1.560140     -0.006588     -0.858667
  H      -1.299581      2.394600      1.017767
  H      -3.834512      2.140684      0.253963
  C      -2.931239      0.345223     -0.559104
  H      -1.262251     -0.954786     -1.270256
  H       0.305928      1.080461     -0.650414
  C      -0.817587     -0.013078      2.849083
  C      -0.407798     -1.326360      2.270171
  H       0.152158     -1.197553      1.341942
  H       0.225386     -1.895002      2.954783
  H      -2.745038      0.862842      3.293971
  H      -0.109053      0.737479      3.149294
  C      -2.152978      0.045696      2.921287
  C      -2.712598     -1.187865      2.412451
  C      -1.718479     -1.999090      2.031637
  H      -3.767372     -1.391192      2.363494
  H      -1.801088     -2.984542      1.611230
22
Coordinates from ORCA-job opt+numfreq E -27.433967419860
  C      -1.584359      2.140734     -0.004377
  C      -2.968870      1.587237     -0.066515
  C      -0.762029      1.020631     -0.548854
  H      -1.479690      3.051355     -0.598278
  H      -3.766628     -0.312643     -0.724796
  C      -1.560501     -0.006600     -0.864281
  H      -1.298149      2.387605      1.019821
  H      -3.833331      2.138376      0.255270
  C      -2.931461      0.344932     -0.563241
  H      -1.263569     -0.954194     -1.277756
  H       0.306357      1.078430     -0.652862
  C      -0.818122     -0.011808      2.852006
  C      -0.408178     -1.323688      2.270359
  H       0.150267     -1.192897      1.341447
  H       0.226551     -1.893359      2.952708
  H      -2.746270      0.862162      3.299059
  H      -0.110104      0.739193      3.152300
  C      -2.153514      0.045922      2.925611
  C      -2.712917     -1.187220      2.415410
  C      -1.718457     -1.996916      2.032179
  H      -3.767653     -1.390630      2.366932
  H      -1.801104     -2.981863      1.610535
22
Coordinates from ORCA-job opt+numfreq E -27.433968389180
  C      -1.583698      2.138716     -0.003653
  C      -2.968273      1.585658     -0.065795
  C      -0.761717      1.019612     -0.550396
  H      -1.479279      3.050863     -0.595259
  H      -3.766292     -0.313458     -0.727245
  C      -1.560563     -0.006932     -0.866991
  H      -1.296890      2.383308      1.020976
  H      -3.832746      2.136344      0.256726
  C      -2.931430      0.344245     -0.564791
  H      -1.264319     -0.954357     -1.281256
  H       0.306634      1.077093     -0.654904
  C      -0.818320     -0.011001      2.853935
  C      -0.408497     -1.321902      2.270352
  H       0.149270     -1.189536      1.341201
  H       0.227083     -1.892604      2.951049
  H      -2.747025      0.862067      3.301568
  H      -0.110802      0.740194      3.154962
  C      -2.153717      0.046431      2.927854
  C      -2.713102     -1.186189      2.416283
  C      -1.718590     -1.995074      2.031430
  H      -3.767926     -1.389078      2.367648
  H      -1.801533     -2.979640      1.608986
