6
Coordinates from ORCA-job optts+numfreq_TSOpt_IRC_F E -11.549784812530
  C      -0.160722     -0.021446      0.000817
  H      -0.119589      0.830396     -0.656587
  H      -0.019763      0.147583      1.054884
  H       0.123278     -0.980364     -0.398370
  I       2.602050      0.347377     -0.013124
  I      -2.586756     -0.344986      0.013263
6
Coordinates from ORCA-job optts+numfreq_TSOpt_IRC_F E -11.551581153390
  C      -0.208918     -0.027864      0.001074
  H      -0.121393      0.820539     -0.649018
  H      -0.022711      0.145530      1.042822
  H       0.118728     -0.969682     -0.393827
  I       2.629902      0.351083     -0.013273
  I      -2.557109     -0.341044      0.013103
6
Coordinates from ORCA-job optts+numfreq_TSOpt_IRC_F E -11.553493814910
  C      -0.270637     -0.036526      0.001068
  H      -0.120934      0.812239     -0.642473
  H      -0.023214      0.144028      1.032511
  H       0.116658     -0.959719     -0.389720
  I       2.662733      0.355456     -0.013444
  I      -2.526107     -0.336917      0.012940
6
Coordinates from ORCA-job optts+numfreq_TSOpt_IRC_F E -11.554453538380
  C      -0.321008     -0.043023      0.001426
  H      -0.123816      0.803042     -0.635611
  H      -0.027066      0.141946      1.021533
  H       0.111145     -0.950260     -0.385619
  I       2.706626      0.361297     -0.013678
  I      -2.507382     -0.334441      0.012831
6
Coordinates from ORCA-job optts+numfreq_TSOpt_IRC_F E -11.554762242780
  C      -0.326762     -0.045208     -0.000339
  H      -0.137091      0.801570     -0.635732
  H      -0.040071      0.140447      1.023177
  H       0.097646     -0.951224     -0.385193
  I       2.771952      0.369998     -0.014019
  I      -2.527174     -0.337023      0.012988
6
Coordinates from ORCA-job optts+numfreq_TSOpt_IRC_F E -11.554796298930
  C      -0.329327     -0.044835      0.000574
  H      -0.136992      0.801735     -0.635894
  H      -0.040111      0.140370      1.022791
  H       0.098032     -0.951947     -0.385523
  I       2.772384      0.370052     -0.014025
  I      -2.525488     -0.336815      0.012960
6
Coordinates from ORCA-job optts+numfreq_TSOpt_IRC_F E -11.554817536250
  C      -0.331979     -0.044778      0.001097
  H      -0.136979      0.801663     -0.635856
  H      -0.040193      0.140292      1.022369
  H       0.098160     -0.952185     -0.385635
  I       2.773079      0.370142     -0.014032
  I      -2.523589     -0.336573      0.012937
6
Coordinates from ORCA-job optts+numfreq_TSOpt_IRC_F E -11.554829881780
  C      -0.334310     -0.044953      0.001276
  H      -0.137086      0.801364     -0.635631
  H      -0.040359      0.140206      1.021899
  H       0.098011     -0.951983     -0.385546
  I       2.774089      0.370275     -0.014038
  I      -2.521846     -0.336348      0.012922
