6
Coordinates from ORCA-job optts+numfreq_TSOpt_IRC_Full E -11.554828345870
  C       0.334189      0.044067     -0.002009
  H      -0.084373      0.808502     -0.636051
  H       0.012257      0.147174      1.021603
  H       0.151080     -0.944996     -0.385862
  I       2.521775      0.336661     -0.012732
  I      -2.773428     -0.369968      0.014169
6
Coordinates from ORCA-job optts+numfreq_TSOpt_IRC_Full E -11.554815496590
  C       0.331915      0.043556     -0.002118
  H      -0.084622      0.808881     -0.636371
  H       0.012046      0.147224      1.022157
  H       0.150969     -0.945307     -0.385979
  I       2.523558      0.336908     -0.012736
  I      -2.772365     -0.369824      0.014165
6
Coordinates from ORCA-job optts+numfreq_TSOpt_IRC_Full E -11.554796194280
  C       0.329821      0.042590     -0.002511
  H      -0.084774      0.809213     -0.636617
  H       0.011896      0.147300      1.022705
  H       0.151013     -0.945084     -0.385889
  I       2.525245      0.337151     -0.012734
  I      -2.771701     -0.369732      0.014164
6
Coordinates from ORCA-job optts+numfreq_TSOpt_IRC_Full E -11.554772702600
  C       0.328290      0.041523     -0.003015
  H      -0.084862      0.809458     -0.636777
  H       0.011788      0.147377      1.023162
  H       0.151123     -0.944578     -0.385688
  I       2.526484      0.337336     -0.012729
  I      -2.771322     -0.369677      0.014165
6
Coordinates from ORCA-job optts+numfreq_TSOpt_IRC_Full E -11.554452653090
  C       0.321081      0.042638     -0.001755
  H      -0.097505      0.806545     -0.635820
  H      -0.000899      0.145378      1.021342
  H       0.138078     -0.946794     -0.385822
  I       2.507326      0.334691     -0.012672
  I      -2.706580     -0.361019      0.013846
6
Coordinates from ORCA-job optts+numfreq_TSOpt_IRC_Full E -11.553493508010
  C       0.270769      0.035510     -0.001672
  H      -0.102716      0.814687     -0.642651
  H      -0.005054      0.146399      1.032377
  H       0.135207     -0.957225     -0.389819
  I       2.526068      0.337219     -0.012752
  I      -2.662773     -0.355151      0.013636
6
Coordinates from ORCA-job optts+numfreq_TSOpt_IRC_Full E -11.551581159190
  C       0.208919      0.027859     -0.001082
  H      -0.104487      0.822729     -0.649131
  H      -0.005838      0.147721      1.042707
  H       0.135784     -0.967472     -0.393947
  I       2.557067      0.341363     -0.012903
  I      -2.629944     -0.350761      0.013475
6
Coordinates from ORCA-job optts+numfreq_TSOpt_IRC_Full E -11.549784818920
  C       0.160727      0.021404     -0.000847
  H      -0.108896      0.831765     -0.656681
  H      -0.009109      0.148936      1.054799
  H       0.134165     -0.978968     -0.398451
  I       2.586710      0.345332     -0.013046
  I      -2.602096     -0.347029      0.013344
6
Coordinates from ORCA-job optts+numfreq_TSOpt_IRC_Full E -11.548149523550
  C       0.000002     -0.000021     -0.000015
  H      -0.114242      0.831081     -0.656634
  H      -0.014436      0.148259      1.054841
  H       0.128722     -0.979666     -0.398411
  I       2.594380      0.346354     -0.013085
  I      -2.594426     -0.346007      0.013303
6
Coordinates from ORCA-job optts+numfreq_TSOpt_IRC_Full E -11.549784812530
  C      -0.160722     -0.021446      0.000817
  H      -0.119589      0.830396     -0.656587
  H      -0.019763      0.147583      1.054884
  H       0.123278     -0.980364     -0.398370
  I       2.602050      0.347377     -0.013124
  I      -2.586756     -0.344986      0.013263
6
Coordinates from ORCA-job optts+numfreq_TSOpt_IRC_Full E -11.551581153390
  C      -0.208918     -0.027864      0.001074
  H      -0.121393      0.820539     -0.649018
  H      -0.022711      0.145530      1.042822
  H       0.118728     -0.969682     -0.393827
  I       2.629902      0.351083     -0.013273
  I      -2.557109     -0.341044      0.013103
6
Coordinates from ORCA-job optts+numfreq_TSOpt_IRC_Full E -11.553493814910
  C      -0.270637     -0.036526      0.001068
  H      -0.120934      0.812239     -0.642473
  H      -0.023214      0.144028      1.032511
  H       0.116658     -0.959719     -0.389720
  I       2.662733      0.355456     -0.013444
  I      -2.526107     -0.336917      0.012940
6
Coordinates from ORCA-job optts+numfreq_TSOpt_IRC_Full E -11.554453538380
  C      -0.321008     -0.043023      0.001426
  H      -0.123816      0.803042     -0.635611
  H      -0.027066      0.141946      1.021533
  H       0.111145     -0.950260     -0.385619
  I       2.706626      0.361297     -0.013678
  I      -2.507382     -0.334441      0.012831
6
Coordinates from ORCA-job optts+numfreq_TSOpt_IRC_Full E -11.554762242780
  C      -0.326762     -0.045208     -0.000339
  H      -0.137091      0.801570     -0.635732
  H      -0.040071      0.140447      1.023177
  H       0.097646     -0.951224     -0.385193
  I       2.771952      0.369998     -0.014019
  I      -2.527174     -0.337023      0.012988
6
Coordinates from ORCA-job optts+numfreq_TSOpt_IRC_Full E -11.554796298930
  C      -0.329327     -0.044835      0.000574
  H      -0.136992      0.801735     -0.635894
  H      -0.040111      0.140370      1.022791
  H       0.098032     -0.951947     -0.385523
  I       2.772384      0.370052     -0.014025
  I      -2.525488     -0.336815      0.012960
6
Coordinates from ORCA-job optts+numfreq_TSOpt_IRC_Full E -11.554817536250
  C      -0.331979     -0.044778      0.001097
  H      -0.136979      0.801663     -0.635856
  H      -0.040193      0.140292      1.022369
  H       0.098160     -0.952185     -0.385635
  I       2.773079      0.370142     -0.014032
  I      -2.523589     -0.336573      0.012937
6
Coordinates from ORCA-job optts+numfreq_TSOpt_IRC_Full E -11.554829881780
  C      -0.334310     -0.044953      0.001276
  H      -0.137086      0.801364     -0.635631
  H      -0.040359      0.140206      1.021899
  H       0.098011     -0.951983     -0.385546
  I       2.774089      0.370275     -0.014038
  I      -2.521846     -0.336348      0.012922
