6
Coordinates from ORCA-job opt+numfreq E -11.554853553620
  C      -2.558104      0.944512      0.003431
  H      -2.355964      1.789532     -0.633943
  H      -2.259136      1.128971      1.022126
  H      -2.122137      0.038287     -0.383781
  I       0.577068      1.363677     -0.011999
  I      -4.736964      0.655325      0.015481
6
Coordinates from ORCA-job opt+numfreq E -11.554853658090
  C      -2.558100      0.944522      0.003436
  H      -2.355935      1.789706     -0.633636
  H      -2.259150      1.129240      1.022032
  H      -2.121978      0.038347     -0.383694
  I       0.576689      1.363376     -0.012153
  I      -4.736764      0.655114      0.015330
