6
Coordinates from ORCA-job opt+numfreq E  -6.012596709520
  C      -1.439640      1.097240     -0.000000
  H      -1.897190      1.842060     -0.617080
  H      -1.797830      1.196120      1.003400
  H      -1.686040      0.124900     -0.372480
  I      -0.377490      1.225880     -0.013850
  I      -4.303350      0.692580      0.000000
6
Coordinates from ORCA-job opt+numfreq E  -8.224886865680
  C      -1.471175      1.093511      0.000469
  H      -1.900819      1.829316     -0.607437
  H      -1.802972      1.193323      0.988127
  H      -1.693001      0.138658     -0.366568
  I      -0.313021      1.233815     -0.014608
  I      -4.320552      0.690157      0.000006
6
Coordinates from ORCA-job opt+numfreq E  -9.550222000660
  C      -1.499463      1.090159      0.000886
  H      -1.906884      1.820547     -0.601109
  H      -1.810041      1.191038      0.978218
  H      -1.701162      0.147202     -0.362662
  I      -0.246428      1.242026     -0.015384
  I      -4.337563      0.687809      0.000041
6
Coordinates from ORCA-job opt+numfreq E -10.344393416070
  C      -1.526542      1.086941      0.001279
  H      -1.913540      1.812801     -0.595650
  H      -1.817576      1.188877      0.969693
  H      -1.709580      0.154402     -0.359281
  I      -0.179378      1.250317     -0.016148
  I      -4.354924      0.685441      0.000096
6
Coordinates from ORCA-job opt+numfreq E -10.818061418320
  C      -1.551822      1.083917      0.001633
  H      -1.921266      1.807751     -0.592427
  H      -1.825846      1.187102      0.964731
  H      -1.718235      0.158185     -0.357257
  I      -0.111951      1.258709     -0.016882
  I      -4.372420      0.683116      0.000191
6
Coordinates from ORCA-job opt+numfreq E -11.101271041580
  C      -1.574888      1.081122      0.001934
  H      -1.930280      1.806790     -0.592571
  H      -1.834897      1.185941      0.965116
  H      -1.726933      0.156862     -0.357278
  I      -0.044655      1.267173     -0.017558
  I      -4.389887      0.680890      0.000347
6
Coordinates from ORCA-job opt+numfreq E -11.272971878960
  C      -1.595425      1.078584      0.002170
  H      -1.940540      1.810377     -0.596455
  H      -1.844636      1.185477      0.971419
  H      -1.735490      0.149888     -0.359577
  I       0.021938      1.275670     -0.018149
  I      -4.407386      0.678785      0.000582
6
Coordinates from ORCA-job opt+numfreq E -11.379630580380
  C      -1.613321      1.076311      0.002336
  H      -1.951729      1.817491     -0.603268
  H      -1.854876      1.185537      0.982321
  H      -1.743861      0.138498     -0.363666
  I       0.087782      1.284214     -0.018643
  I      -4.425535      0.676729      0.000908
6
Coordinates from ORCA-job opt+numfreq E -11.447404659410
  C      -1.628538      1.074303      0.002429
  H      -1.963428      1.826262     -0.611526
  H      -1.865438      1.185798      0.995426
  H      -1.752129      0.124933     -0.368647
  I       0.153445      1.292898     -0.019030
  I      -4.445451      0.674586      0.001338
6
Coordinates from ORCA-job opt+numfreq E -11.490898918750
  C      -1.640954      1.072565      0.002442
  H      -1.975242      1.834816     -0.619750
  H      -1.876168      1.185930      1.008333
  H      -1.760389      0.111418     -0.373631
  I       0.219613      1.301839     -0.019298
  I      -4.468400      0.672211      0.001895
6
Coordinates from ORCA-job opt+numfreq E -11.518651809590
  C      -1.650337      1.071115      0.002363
  H      -1.986813      1.841740     -0.626835
  H      -1.886893      1.185680      1.019228
  H      -1.768632      0.099616     -0.377958
  I       0.286611      1.311126     -0.019420
  I      -4.495476      0.669503      0.002612
6
Coordinates from ORCA-job opt+numfreq E -11.535971381720
  C      -1.656409      1.069969      0.002180
  H      -1.997803      1.846263     -0.632185
  H      -1.897387      1.184912      1.027102
  H      -1.776682      0.090425     -0.381287
  I       0.354216      1.320788     -0.019355
  I      -4.527475      0.666423      0.003536
6
Coordinates from ORCA-job opt+numfreq E -11.546278118760
  C      -1.658822      1.069149      0.001873
  H      -2.007800      1.848266     -0.635722
  H      -1.907268      1.183614      1.031749
  H      -1.784092      0.084002     -0.383591
  I       0.421625      1.330796     -0.019049
  I      -4.565182      0.662953      0.004730
6
Coordinates from ORCA-job opt+numfreq E -11.551800111040
  C      -1.656799      1.068733      0.001421
  H      -2.015810      1.848152     -0.637722
  H      -1.915528      1.181930      1.033525
  H      -1.789702      0.080071     -0.385059
  I       0.486963      1.340988     -0.018436
  I      -4.610665      0.658907      0.006261
6
Coordinates from ORCA-job opt+numfreq E -11.554047920530
  C      -1.648167      1.069073      0.000855
  H      -2.018338      1.846882     -0.638490
  H      -1.918588      1.180482      1.032984
  H      -1.790030      0.078676     -0.385858
  I       0.543195      1.350325     -0.017541
  I      -4.669612      0.653341      0.008041
6
Coordinates from ORCA-job opt+numfreq E -11.554458120620
  C      -1.640266      1.069498      0.000409
  H      -2.018809      1.845654     -0.638737
  H      -1.919523      1.179480      1.031990
  H      -1.788936      0.078285     -0.386279
  I       0.571680      1.355564     -0.016759
  I      -4.705686      0.650298      0.009366
6
Coordinates from ORCA-job opt+numfreq E -11.554530252850
  C      -1.634699      1.069837      0.000120
  H      -2.018483      1.844618     -0.638628
  H      -1.919538      1.178862      1.030927
  H      -1.787690      0.078505     -0.386391
  I       0.580300      1.357630     -0.016212
  I      -4.721429      0.649327      0.010175
6
Coordinates from ORCA-job opt+numfreq E -11.554610401470
  C      -1.626409      1.070308     -0.000333
  H      -2.018574      1.842714     -0.638307
  H      -1.920194      1.177770      1.029012
  H      -1.786365      0.078978     -0.386480
  I       0.586506      1.359901     -0.015311
  I      -4.736504      0.649109      0.011410
6
Coordinates from ORCA-job opt+numfreq E -11.554732752540
  C      -1.611105      1.071174     -0.001172
  H      -2.019405      1.838560     -0.637346
  H      -1.922153      1.175518      1.024813
  H      -1.784635      0.080287     -0.386439
  I       0.590333      1.363138     -0.013568
  I      -4.754575      0.650104      0.013703
6
Coordinates from ORCA-job opt+numfreq E -11.554815644710
  C      -1.599162      1.071819     -0.001848
  H      -2.021164      1.834521     -0.636206
  H      -1.924903      1.173410      1.020773
  H      -1.784378      0.081721     -0.386199
  I       0.586598      1.364899     -0.012086
  I      -4.758530      0.652410      0.015556
6
Coordinates from ORCA-job opt+numfreq E -11.554848181190
  C      -1.598053      1.071750     -0.001995
  H      -2.023469      1.833085     -0.635731
  H      -1.927471      1.172627      1.019532
  H      -1.786290      0.082093     -0.386012
  I       0.580272      1.364571     -0.011718
  I      -4.746528      0.654653      0.015913
6
Coordinates from ORCA-job opt+numfreq E -11.554853589820
  C      -1.600723      1.071525     -0.001897
  H      -2.024637      1.833167     -0.635630
  H      -1.928534      1.172691      1.019721
  H      -1.787855      0.082065     -0.385885
  I       0.577099      1.363819     -0.011912
  I      -4.736890      0.655514      0.015593
6
Coordinates from ORCA-job opt+numfreq E -11.554853648230
  C      -1.600943      1.071550     -0.001862
  H      -2.024482      1.833259     -0.635566
  H      -1.928337      1.172800      1.019758
  H      -1.787882      0.082169     -0.385822
  I       0.577068      1.363677     -0.011999
  I      -4.736964      0.655325      0.015481
