6
Coordinates from ORCA-job opt+numfreq E -11.554853648230
  C      -1.600943      1.071550     -0.001862
  H      -2.024482      1.833259     -0.635566
  H      -1.928337      1.172800      1.019758
  H      -1.787882      0.082169     -0.385822
  I       0.577068      1.363677     -0.011999
  I      -4.736964      0.655325      0.015481
6
Coordinates from ORCA-job opt+numfreq E -11.554853675200
  C      -1.600952      1.071571     -0.001850
  H      -2.024453      1.833369     -0.635449
  H      -1.928254      1.172942      1.019773
  H      -1.788090      0.082217     -0.385757
  I       0.577139      1.363552     -0.012081
  I      -4.736930      0.655129      0.015355
