6
Coordinates from ORCA-job scants+numfreq E -11.554853637290
  C      -1.600759      1.071575     -0.001863
  H      -2.024515      1.833192     -0.635518
  H      -1.928378      1.172783      1.019681
  H      -1.787933      0.082236     -0.385792
  I       0.577252      1.363701     -0.011999
  I      -4.737207      0.655293      0.015482
6
Coordinates from ORCA-job scants+numfreq E -11.554853668270
  C      -1.600766      1.071596     -0.001851
  H      -2.024431      1.833340     -0.635425
  H      -1.928235      1.172939      1.019733
  H      -1.788077      0.082256     -0.385743
  I       0.577155      1.363554     -0.012081
  I      -4.737186      0.655095      0.015357
6
Coordinates from ORCA-job scants+numfreq E -11.553642821930
  C      -1.647111      1.065419     -0.001611
  H      -2.016016      1.850134     -0.647638
  H      -1.917970      1.177089      1.039213
  H      -1.775173      0.065522     -0.393173
  I       0.530809      1.357385     -0.011836
  I      -4.676081      0.663232      0.015036
6
Coordinates from ORCA-job scants+numfreq E -11.554378930190
  C      -1.647316      1.065438     -0.001581
  H      -2.030015      1.840063     -0.641031
  H      -1.932893      1.173739      1.028995
  H      -1.791802      0.073236     -0.389097
  I       0.576734      1.363346     -0.012174
  I      -4.676248      0.662957      0.014878
6
Coordinates from ORCA-job scants+numfreq E -11.554440244650
  C      -1.643548      1.066005     -0.001561
  H      -2.031454      1.838349     -0.639641
  H      -1.934475      1.173374      1.027006
  H      -1.793937      0.075013     -0.388231
  I       0.574315      1.362828     -0.012284
  I      -4.672440      0.663212      0.014700
6
Coordinates from ORCA-job scants+numfreq E -11.554520010530
  C      -1.631901      1.067756     -0.001497
  H      -2.036614      1.835004     -0.636923
  H      -1.939824      1.172551      1.023409
  H      -1.800706      0.078069     -0.386513
  I       0.568171      1.361412     -0.012627
  I      -4.660666      0.663989      0.014141
6
Coordinates from ORCA-job scants+numfreq E -11.554520708410
  C      -1.632084      1.067739     -0.001492
  H      -2.036854      1.835285     -0.637168
  H      -1.940017      1.172579      1.023807
  H      -1.800899      0.077687     -0.386655
  I       0.569160      1.361542     -0.012634
  I      -4.660846      0.663949      0.014132
6
Coordinates from ORCA-job scants+numfreq E -11.554520721220
  C      -1.632045      1.067754     -0.001485
  H      -2.036902      1.835328     -0.637196
  H      -1.940049      1.172590      1.023868
  H      -1.800984      0.077650     -0.386663
  I       0.569242      1.361536     -0.012645
  I      -4.660802      0.663923      0.014111
6
Coordinates from ORCA-job scants+numfreq E -11.552551891670
  C      -1.678527      1.061555     -0.001247
  H      -2.028367      1.852259     -0.649498
  H      -1.929652      1.176783      1.043494
  H      -1.787919      0.060797     -0.394149
  I       0.522761      1.355335     -0.012408
  I      -4.599836      0.672052      0.013798
6
Coordinates from ORCA-job scants+numfreq E -11.553343863930
  C      -1.680985      1.061236     -0.001228
  H      -2.042781      1.841684     -0.642697
  H      -1.945078      1.173196      1.032790
  H      -1.804857      0.068759     -0.389982
  I       0.574452      1.362212     -0.012683
  I      -4.602290      0.671693      0.013790
6
Coordinates from ORCA-job scants+numfreq E -11.553365913910
  C      -1.678774      1.061541     -0.001234
  H      -2.042899      1.840771     -0.641984
  H      -1.945296      1.173016      1.031668
  H      -1.805266      0.069791     -0.389544
  I       0.570769      1.361701     -0.012677
  I      -4.600073      0.671960      0.013761
6
Coordinates from ORCA-job scants+numfreq E -11.553393527860
  C      -1.672611      1.062387     -0.001250
  H      -2.044902      1.838928     -0.640706
  H      -1.947468      1.172473      1.029699
  H      -1.807815      0.071386     -0.388752
  I       0.565154      1.360900     -0.012681
  I      -4.593898      0.672706      0.013680
6
Coordinates from ORCA-job scants+numfreq E -11.553396482130
  C      -1.671280      1.062568     -0.001254
  H      -2.046032      1.838612     -0.640563
  H      -1.948615      1.172296      1.029495
  H      -1.809014      0.071435     -0.388661
  I       0.565964      1.361000     -0.012690
  I      -4.592564      0.672869      0.013664
6
Coordinates from ORCA-job scants+numfreq E -11.553396833620
  C      -1.671038      1.062599     -0.001256
  H      -2.046472      1.838602     -0.640599
  H      -1.949048      1.172247      1.029558
  H      -1.809441      0.071320     -0.388682
  I       0.566781      1.361110     -0.012694
  I      -4.592322      0.672901      0.013663
6
Coordinates from ORCA-job scants+numfreq E -11.550542789970
  C      -1.717876      1.056351     -0.001017
  H      -2.037572      1.855521     -0.652855
  H      -1.938293      1.176476      1.049105
  H      -1.796027      0.054584     -0.396142
  I       0.519942      1.354862     -0.012454
  I      -4.531714      0.680986      0.013353
6
Coordinates from ORCA-job scants+numfreq E -11.551465502080
  C      -1.723640      1.055581     -0.000988
  H      -2.053005      1.844429     -0.645765
  H      -1.954792      1.172670      1.037933
  H      -1.814051      0.062815     -0.391807
  I       0.581427      1.363065     -0.012767
  I      -4.537478      0.680220      0.013384
6
Coordinates from ORCA-job scants+numfreq E -11.551472561440
  C      -1.723399      1.055613     -0.000990
  H      -2.051521      1.844385     -0.645586
  H      -1.953336      1.172821      1.037625
  H      -1.812635      0.063287     -0.391701
  I       0.576589      1.362421     -0.012742
  I      -4.537237      0.680253      0.013384
6
Coordinates from ORCA-job scants+numfreq E -11.551472692220
  C      -1.723431      1.055608     -0.000990
  H      -2.051280      1.844456     -0.645618
  H      -1.953091      1.172860      1.037672
  H      -1.812381      0.063274     -0.391721
  I       0.575911      1.362331     -0.012738
  I      -4.537269      0.680250      0.013385
6
Coordinates from ORCA-job scants+numfreq E -11.547971445810
  C      -1.771025      1.049259     -0.000747
  H      -2.041559      1.861004     -0.657507
  H      -1.941572      1.177106      1.056618
  H      -1.798284      0.047194     -0.398959
  I       0.528317      1.355983     -0.012495
  I      -4.477416      0.688234      0.013079
6
Coordinates from ORCA-job scants+numfreq E -11.549133413810
  C      -1.781912      1.047807     -0.000691
  H      -2.059406      1.849144     -0.650057
  H      -1.960536      1.172892      1.044902
  H      -1.818850      0.055614     -0.394400
  I       0.607467      1.366541     -0.012899
  I      -4.488303      0.686783      0.013135
6
Coordinates from ORCA-job scants+numfreq E -11.549191568330
  C      -1.784212      1.047500     -0.000680
  H      -2.055468      1.849841     -0.650211
  H      -1.956579      1.173451      1.045097
  H      -1.814863      0.055942     -0.394502
  I       0.600185      1.365570     -0.012862
  I      -4.490603      0.686476      0.013147
6
Coordinates from ORCA-job scants+numfreq E -11.549244103050
  C      -1.790586      1.046650     -0.000647
  H      -2.050327      1.851467     -0.650968
  H      -1.951327      1.174318      1.046242
  H      -1.809451      0.055556     -0.394971
  I       0.597128      1.365163     -0.012846
  I      -4.496978      0.685626      0.013180
6
Coordinates from ORCA-job scants+numfreq E -11.549269888760
  C      -1.796900      1.045807     -0.000615
  H      -2.047632      1.852721     -0.651675
  H      -1.948526      1.174850      1.047342
  H      -1.806499      0.054897     -0.395407
  I       0.601309      1.365721     -0.012867
  I      -4.503292      0.684785      0.013212
6
Coordinates from ORCA-job scants+numfreq E -11.549278575960
  C      -1.800870      1.045278     -0.000595
  H      -2.047031      1.853384     -0.652131
  H      -1.947857      1.175043      1.048064
  H      -1.805731      0.054313     -0.395684
  I       0.607211      1.366508     -0.012897
  I      -4.507262      0.684255      0.013233
6
Coordinates from ORCA-job scants+numfreq E -11.549279133140
  C      -1.801301      1.045220     -0.000592
  H      -2.047330      1.853413     -0.652183
  H      -1.948147      1.175017      1.048152
  H      -1.806010      0.054195     -0.395715
  I       0.608939      1.366738     -0.012906
  I      -4.507692      0.684197      0.013235
6
Coordinates from ORCA-job scants+numfreq E -11.549279146720
  C      -1.801230      1.045230     -0.000593
  H      -2.047432      1.853389     -0.652175
  H      -1.948251      1.175001      1.048140
  H      -1.806115      0.054192     -0.395710
  I       0.609110      1.366761     -0.012907
  I      -4.507622      0.684207      0.013234
6
Coordinates from ORCA-job scants+numfreq E -11.546381238700
  C      -1.851108      1.038576     -0.000338
  H      -2.046395      1.872104     -0.666600
  H      -1.945023      1.178731      1.071272
  H      -1.799747      0.033166     -0.404471
  I       0.590785      1.364316     -0.012814
  I      -4.450053      0.691886      0.012940
6
Coordinates from ORCA-job scants+numfreq E -11.547651508790
  C      -1.865653      1.036636     -0.000264
  H      -2.054246      1.856002     -0.654874
  H      -1.954649      1.174773      1.052561
  H      -1.811918      0.049271     -0.397335
  I       0.649523      1.372152     -0.013114
  I      -4.464597      0.689946      0.013014
6
Coordinates from ORCA-job scants+numfreq E -11.547807455320
  C      -1.872748      1.035690     -0.000227
  H      -2.049262      1.855972     -0.654360
  H      -1.949747      1.175304      1.051671
  H      -1.807134      0.050727     -0.397033
  I       0.649044      1.372088     -0.013111
  I      -4.471692      0.688999      0.013051
6
Coordinates from ORCA-job scants+numfreq E -11.548127560620
  C      -1.902383      1.031736     -0.000076
  H      -2.034304      1.859325     -0.655490
  H      -1.934629      1.177561      1.053285
  H      -1.791787      0.051176     -0.397749
  I       0.662891      1.373935     -0.013182
  I      -4.501328      0.685046      0.013202
6
Coordinates from ORCA-job scants+numfreq E -11.548150823070
  C      -1.910707      1.030626     -0.000033
  H      -2.031900      1.860640     -0.656274
  H      -1.932107      1.178074      1.054510
  H      -1.789097      0.050365     -0.398230
  I       0.671922      1.375140     -0.013228
  I      -4.509652      0.683936      0.013245
6
Coordinates from ORCA-job scants+numfreq E -11.548151580130
  C      -1.911865      1.030471     -0.000028
  H      -2.031892      1.860876     -0.656457
  H      -1.932072      1.178121      1.054804
  H      -1.789021      0.050097     -0.398341
  I       0.674119      1.375433     -0.013239
  I      -4.510809      0.683781      0.013251
6
Coordinates from ORCA-job scants+numfreq E -11.548151587210
  C      -1.911854      1.030473     -0.000028
  H      -2.031957      1.860883     -0.656468
  H      -1.932135      1.178115      1.054824
  H      -1.789082      0.050070     -0.398348
  I       0.674288      1.375455     -0.013240
  I      -4.510799      0.683783      0.013251
6
Coordinates from ORCA-job scants+numfreq E -11.547127156740
  C      -1.962721      1.023687      0.000232
  H      -2.030260      1.877327     -0.669066
  H      -1.928525      1.181477      1.075013
  H      -1.782731      0.031820     -0.406000
  I       0.656915      1.373138     -0.013151
  I      -4.454218      0.691330      0.012961
6
Coordinates from ORCA-job scants+numfreq E -11.548594430470
  C      -1.981649      1.021162      0.000329
  H      -2.039671      1.858918     -0.655702
  H      -1.939959      1.176905      1.053697
  H      -1.797065      0.050108     -0.397867
  I       0.729951      1.382881     -0.013525
  I      -4.473147      0.688805      0.013058
6
Coordinates from ORCA-job scants+numfreq E -11.548778376110
  C      -1.988323      1.020272      0.000363
  H      -2.032371      1.857745     -0.654073
  H      -1.932913      1.177464      1.050985
  H      -1.790381      0.053528     -0.396893
  I       0.722268      1.381856     -0.013485
  I      -4.479821      0.687915      0.013092
6
Coordinates from ORCA-job scants+numfreq E -11.549060316020
  C      -2.012320      1.017071      0.000486
  H      -2.018823      1.858462     -0.653296
  H      -1.919494      1.179060      1.049559
  H      -1.777146      0.056577     -0.396448
  I       0.730060      1.382895     -0.013525
  I      -4.503817      0.684714      0.013215
6
Coordinates from ORCA-job scants+numfreq E -11.549094408890
  C      -2.022289      1.015741      0.000537
  H      -2.016406      1.858770     -0.653297
  H      -1.917078      1.179380      1.049528
  H      -1.774733      0.056916     -0.396454
  I       0.742754      1.384589     -0.013590
  I      -4.513787      0.683384      0.013266
6
Coordinates from ORCA-job scants+numfreq E -11.549095710870
  C      -2.023283      1.015609      0.000542
  H      -2.016852      1.858857     -0.653409
  H      -1.917507      1.179349      1.049714
  H      -1.775137      0.056689     -0.396521
  I       0.746019      1.385024     -0.013607
  I      -4.514781      0.683252      0.013271
6
Coordinates from ORCA-job scants+numfreq E -11.549095738940
  C      -2.023276      1.015609      0.000542
  H      -2.017003      1.858860     -0.653425
  H      -1.917655      1.179333      1.049742
  H      -1.775281      0.056644     -0.396530
  I       0.746449      1.385081     -0.013609
  I      -4.514774      0.683252      0.013271
6
Coordinates from ORCA-job scants+numfreq E -11.546428695610
  C      -1.975771      1.021947      0.000299
  H      -2.018148      1.845040     -0.642810
  H      -1.920412      1.176538      1.032726
  H      -1.780348      0.072063     -0.390083
  I       0.762395      1.387209     -0.013690
  I      -4.569257      0.675985      0.013549
6
Coordinates from ORCA-job scants+numfreq E -11.547739661210
  C      -1.958410      1.024262      0.000210
  H      -2.007733      1.862709     -0.655501
  H      -1.908076      1.181075      1.052950
  H      -1.765261      0.054903     -0.397809
  I       0.689836      1.377529     -0.013320
  I      -4.551896      0.678300      0.013460
6
Coordinates from ORCA-job scants+numfreq E -11.547850002480
  C      -1.956310      1.024543      0.000200
  H      -2.017162      1.864304     -0.657667
  H      -1.917170      1.180369      1.056550
  H      -1.773872      0.050396     -0.399106
  I       0.712771      1.380589     -0.013437
  I      -4.549796      0.678581      0.013450
6
Coordinates from ORCA-job scants+numfreq E -11.547985799490
  C      -1.946378      1.025867      0.000149
  H      -2.020786      1.863384     -0.657310
  H      -1.920845      1.179801      1.056025
  H      -1.777621      0.050410     -0.398881
  I       0.703955      1.379413     -0.013392
  I      -4.539864      0.679905      0.013399
6
Coordinates from ORCA-job scants+numfreq E -11.548149581000
  C      -1.918005      1.029652      0.000004
  H      -2.030887      1.860955     -0.656419
  H      -1.931073      1.178244      1.054730
  H      -1.788032      0.050294     -0.398320
  I       0.677948      1.375944     -0.013259
  I      -4.511491      0.683690      0.013254
6
Coordinates from ORCA-job scants+numfreq E -11.548149619070
  C      -1.917962      1.029658      0.000004
  H      -2.030996      1.861034     -0.656491
  H      -1.931172      1.178248      1.054847
  H      -1.788115      0.050173     -0.398364
  I       0.678153      1.375971     -0.013260
  I      -4.511448      0.683696      0.013254
6
Coordinates from ORCA-job scants+numfreq E -11.548149619070
  C      -1.917962      1.029658      0.000004
  H      -2.030996      1.861034     -0.656491
  H      -1.931172      1.178248      1.054847
  H      -1.788115      0.050173     -0.398364
  I       0.678153      1.375971     -0.013260
  I      -4.511448      0.683696      0.013254
6
Coordinates from ORCA-job scants+numfreq E -11.548148228780
  C      -1.917404      1.029732      0.000001
  H      -2.030485      1.861099     -0.656491
  H      -1.930661      1.178316      1.054841
  H      -1.787605      0.050244     -0.398365
  I       0.678670      1.376040     -0.013263
  I      -4.514054      0.683348      0.013267
