6
Coordinates from ORCA-job optts+numfreq_IRC_Full E -11.554796146060
  C       0.332735      0.044331     -0.001665
  H      -0.086981      0.807636     -0.635346
  H       0.009740      0.146907      1.020690
  H       0.147513     -0.944775     -0.385528
  I       2.516961      0.335044     -0.013272
  I      -2.758335     -0.367746      0.014197
6
Coordinates from ORCA-job optts+numfreq_IRC_Full E -11.554764198570
  C       0.330394      0.044454     -0.001816
  H      -0.088527      0.807502     -0.635397
  H       0.008110      0.146735      1.021121
  H       0.145877     -0.945526     -0.385718
  I       2.516007      0.334909     -0.013263
  I      -2.750228     -0.366677      0.014150
6
Coordinates from ORCA-job optts+numfreq_IRC_Full E -11.554721649630
  C       0.327589      0.043591     -0.001634
  H      -0.090286      0.807559     -0.635607
  H       0.006496      0.146544      1.021139
  H       0.144245     -0.945579     -0.385661
  I       2.515021      0.334795     -0.013259
  I      -2.741432     -0.365511      0.014098
6
Coordinates from ORCA-job optts+numfreq_IRC_Full E -11.554673385990
  C       0.325150      0.043972     -0.001801
  H      -0.091744      0.807316     -0.635577
  H       0.004908      0.146364      1.021555
  H       0.142606     -0.946472     -0.385907
  I       2.514099      0.334667     -0.013246
  I      -2.733384     -0.364450      0.014053
6
Coordinates from ORCA-job optts+numfreq_IRC_Full E -11.554637620780
  C       0.323944      0.044465     -0.001964
  H      -0.092675      0.807276     -0.635652
  H       0.003868      0.146277      1.022099
  H       0.141557     -0.947386     -0.386196
  I       2.513526      0.334583     -0.013237
  I      -2.728586     -0.363818      0.014026
6
Coordinates from ORCA-job optts+numfreq_IRC_Full E -11.554598694810
  C       0.323355      0.046024     -0.002369
  H      -0.093048      0.806914     -0.635441
  H       0.003158      0.146212      1.022775
  H       0.140791     -0.948803     -0.386675
  I       2.513173      0.334507     -0.013225
  I      -2.725796     -0.363457      0.014012
6
Coordinates from ORCA-job optts+numfreq_IRC_Full E -11.554428568900
  C       0.319475      0.042988     -0.001741
  H      -0.097583      0.807320     -0.636201
  H      -0.000775      0.145681      1.022447
  H       0.136808     -0.947905     -0.386129
  I       2.507979      0.333907     -0.013188
  I      -2.704269     -0.360593      0.013888
6
Coordinates from ORCA-job optts+numfreq_IRC_Full E -11.553464677010
  C       0.269331      0.037365     -0.000549
  H      -0.102356      0.814699     -0.642370
  H      -0.004582      0.146566      1.031957
  H       0.134918     -0.958478     -0.390261
  I       2.527168      0.336367     -0.013345
  I      -2.662846     -0.355121      0.013645
6
Coordinates from ORCA-job optts+numfreq_IRC_Full E -11.551589163310
  C       0.209251      0.027416     -0.001361
  H      -0.104384      0.823149     -0.648853
  H      -0.005650      0.148177      1.042948
  H       0.135395     -0.966936     -0.393627
  I       2.557065      0.340344     -0.013505
  I      -2.630043     -0.350752      0.013474
6
Coordinates from ORCA-job optts+numfreq_IRC_Full E -11.549791972940
  C       0.160989      0.021150     -0.001012
  H      -0.108761      0.832391     -0.655748
  H      -0.008908      0.149866      1.054524
  H       0.133804     -0.979233     -0.398340
  I       2.586674      0.344276     -0.013667
  I      -2.602165     -0.347053      0.013320
6
Coordinates from ORCA-job optts+numfreq_IRC_Full E -11.548149250520
  C       0.000270     -0.000248     -0.000168
  H      -0.114297      0.831716     -0.655711
  H      -0.014529      0.149162      1.054606
  H       0.128705     -0.979896     -0.398299
  I       2.594346      0.345296     -0.013708
  I      -2.594496     -0.346031      0.013280
6
Coordinates from ORCA-job optts+numfreq_IRC_Full E -11.549777734630
  C      -0.160448     -0.021646      0.000677
  H      -0.119834      0.831042     -0.655674
  H      -0.020150      0.148459      1.054687
  H       0.123607     -0.980559     -0.398258
  I       2.602018      0.346316     -0.013749
  I      -2.586827     -0.345010      0.013240
6
Coordinates from ORCA-job optts+numfreq_IRC_Full E -11.551571951230
  C      -0.208606     -0.028221      0.000833
  H      -0.121537      0.821011     -0.648764
  H      -0.022893      0.145974      1.043171
  H       0.118735     -0.969136     -0.393515
  I       2.629878      0.350072     -0.013868
  I      -2.557210     -0.341098      0.013066
6
Coordinates from ORCA-job optts+numfreq_IRC_Full E -11.553451849730
  C      -0.269203     -0.034361      0.002267
  H      -0.121165      0.812357     -0.642279
  H      -0.023529      0.144144      1.032209
  H       0.116925     -0.960852     -0.390141
  I       2.662640      0.354455     -0.014027
  I      -2.527302     -0.337140      0.012894
6
Coordinates from ORCA-job optts+numfreq_IRC_Full E -11.554424601290
  C      -0.319286     -0.042077      0.001621
  H      -0.123696      0.804006     -0.636070
  H      -0.026973      0.142292      1.022722
  H       0.112361     -0.951144     -0.385978
  I       2.703938      0.360015     -0.014208
  I      -2.507977     -0.334490      0.012838
6
Coordinates from ORCA-job optts+numfreq_IRC_Full E -11.554599410230
  C      -0.324152     -0.040228      0.001033
  H      -0.128010      0.802412     -0.635257
  H      -0.030952      0.141767      1.023075
  H       0.108665     -0.953034     -0.386472
  I       2.725934      0.362955     -0.014308
  I      -2.513118     -0.335269      0.012852
6
Coordinates from ORCA-job optts+numfreq_IRC_Full E -11.554638263300
  C      -0.324302     -0.041862      0.001442
  H      -0.128477      0.802628     -0.635438
  H      -0.031673      0.141635      1.022372
  H       0.107549     -0.951851     -0.385975
  I       2.728742      0.363340     -0.014323
  I      -2.513473     -0.335287      0.012845
6
Coordinates from ORCA-job optts+numfreq_IRC_Full E -11.554674264290
  C      -0.325349     -0.042636      0.001616
  H      -0.129397      0.802392     -0.635332
  H      -0.032717      0.141440      1.021812
  H       0.106285     -0.951232     -0.385669
  I       2.733589      0.363994     -0.014345
  I      -2.514043     -0.335356      0.012841
6
Coordinates from ORCA-job optts+numfreq_IRC_Full E -11.554722368320
  C      -0.327614     -0.043643      0.001810
  H      -0.130864      0.802238     -0.635342
  H      -0.034298      0.141194      1.021402
  H       0.104470     -0.950793     -0.385403
  I       2.741625      0.365078     -0.014382
  I      -2.514953     -0.335472      0.012839
6
Coordinates from ORCA-job optts+numfreq_IRC_Full E -11.554764781420
  C      -0.330560     -0.043548      0.001656
  H      -0.132541      0.801722     -0.635116
  H      -0.035901      0.140956      1.021402
  H       0.102879     -0.951168     -0.385443
  I       2.750419      0.366258     -0.014421
  I      -2.515929     -0.335617      0.012845
6
Coordinates from ORCA-job optts+numfreq_IRC_Full E -11.554796593800
  C      -0.332779     -0.044277      0.001833
  H      -0.134067      0.801441     -0.635046
  H      -0.037522      0.140693      1.020980
  H       0.101103     -0.950871     -0.385234
  I       2.758520      0.367352     -0.014456
  I      -2.516887     -0.335736      0.012847
