6
Coordinates from ORCA-job optts+numfreq_IRC_F E -11.549777734630
  C      -0.160448     -0.021646      0.000677
  H      -0.119834      0.831042     -0.655674
  H      -0.020150      0.148459      1.054687
  H       0.123607     -0.980559     -0.398258
  I       2.602018      0.346316     -0.013749
  I      -2.586827     -0.345010      0.013240
6
Coordinates from ORCA-job optts+numfreq_IRC_F E -11.551571951230
  C      -0.208606     -0.028221      0.000833
  H      -0.121537      0.821011     -0.648764
  H      -0.022893      0.145974      1.043171
  H       0.118735     -0.969136     -0.393515
  I       2.629878      0.350072     -0.013868
  I      -2.557210     -0.341098      0.013066
6
Coordinates from ORCA-job optts+numfreq_IRC_F E -11.553451849730
  C      -0.269203     -0.034361      0.002267
  H      -0.121165      0.812357     -0.642279
  H      -0.023529      0.144144      1.032209
  H       0.116925     -0.960852     -0.390141
  I       2.662640      0.354455     -0.014027
  I      -2.527302     -0.337140      0.012894
6
Coordinates from ORCA-job optts+numfreq_IRC_F E -11.554424601290
  C      -0.319286     -0.042077      0.001621
  H      -0.123696      0.804006     -0.636070
  H      -0.026973      0.142292      1.022722
  H       0.112361     -0.951144     -0.385978
  I       2.703938      0.360015     -0.014208
  I      -2.507977     -0.334490      0.012838
6
Coordinates from ORCA-job optts+numfreq_IRC_F E -11.554599410230
  C      -0.324152     -0.040228      0.001033
  H      -0.128010      0.802412     -0.635257
  H      -0.030952      0.141767      1.023075
  H       0.108665     -0.953034     -0.386472
  I       2.725934      0.362955     -0.014308
  I      -2.513118     -0.335269      0.012852
6
Coordinates from ORCA-job optts+numfreq_IRC_F E -11.554638263300
  C      -0.324302     -0.041862      0.001442
  H      -0.128477      0.802628     -0.635438
  H      -0.031673      0.141635      1.022372
  H       0.107549     -0.951851     -0.385975
  I       2.728742      0.363340     -0.014323
  I      -2.513473     -0.335287      0.012845
6
Coordinates from ORCA-job optts+numfreq_IRC_F E -11.554674264290
  C      -0.325349     -0.042636      0.001616
  H      -0.129397      0.802392     -0.635332
  H      -0.032717      0.141440      1.021812
  H       0.106285     -0.951232     -0.385669
  I       2.733589      0.363994     -0.014345
  I      -2.514043     -0.335356      0.012841
6
Coordinates from ORCA-job optts+numfreq_IRC_F E -11.554722368320
  C      -0.327614     -0.043643      0.001810
  H      -0.130864      0.802238     -0.635342
  H      -0.034298      0.141194      1.021402
  H       0.104470     -0.950793     -0.385403
  I       2.741625      0.365078     -0.014382
  I      -2.514953     -0.335472      0.012839
6
Coordinates from ORCA-job optts+numfreq_IRC_F E -11.554764781420
  C      -0.330560     -0.043548      0.001656
  H      -0.132541      0.801722     -0.635116
  H      -0.035901      0.140956      1.021402
  H       0.102879     -0.951168     -0.385443
  I       2.750419      0.366258     -0.014421
  I      -2.515929     -0.335617      0.012845
6
Coordinates from ORCA-job optts+numfreq_IRC_F E -11.554796593800
  C      -0.332779     -0.044277      0.001833
  H      -0.134067      0.801441     -0.635046
  H      -0.037522      0.140693      1.020980
  H       0.101103     -0.950871     -0.385234
  I       2.758520      0.367352     -0.014456
  I      -2.516887     -0.335736      0.012847
